! Agafonov A. E_act [cal.mol] Default efficiencies = 1.0

ELEMENTS
O  H  N
END

SPECIES
H2      O2     N2      H       O       OH      H2O     HO2     H2O2          
END

REACTIONS
    H2+O2=>OH+OH         0.17378E+14     0.00    48100.0
    OH+OH=>H2+O2         0.66069E+11     0.30    29200.0
    OH+H2=>H+H2O        0.10000E+09     1.60     3300.0
    H+H2O=>OH+H2         0.45709E+09     1.60    18570.0
    H+O2=>OH+O          0.12023E+18     -0.90    16520.0
    OH+O=>H+O2         0.17783E+14     0.00        0.0
    O+H2=>OH+H          0.15136E+08     2.00     7550.0
    OH+H=>O+H2         0.48978E+04     2.80     3880.0
    H+H+M=>H2+M     0.64565E+18    -1.00        0.0
            'H2O/18.6/ H2/2.86/ O2/1.14/ N2/1.14/'
    H2+M=>H+H+M     0.58884E+19    -1.10   104400.0
            'H2O/18.6/ H2/2.86/ O2/1.14/ N2/1.14/'
    OH+H+M=>H2O+M     0.83176E+22    -2.00        0.0
            'H2O/18.6/ H2/2.86/ O2/1.14/ N2/1.14/'
    H2O+M=>OH+H+M     0.12882E+16     0.00   105100.0
            'H2O/18.6/ H2/2.86/ O2/1.14/ N2/1.14/'
    H+O2+M=>HO2+M     0.70795E+18     -0.80        0.0
            'H2O/18.6/ H2/2.86/ O2/1.14/ N2/1.14/'
    HO2+M=>H+O2+M     0.12023E+20    -1.20    48410.0
            'H2O/18.6/ H2/2.86/ O2/1.14/ N2/1.14/'
    HO2+H2=>H2O2+H          0.30199E+14     0.00    26030.0
    H2O2+H=>HO2+H2         0.47863E+14     0.00     7950.0
    HO2+HO2=>H2O2+O2         0.18197E+13     0.00        0.0
    H2O2+O2=>HO2+HO2        0.53703E+14     0.00    39740.0
    H+HO2=>OH+OH         0.25119E+15     0.00     1900.0
    OH+OH=>H+HO2        0.12023E+14     0.00    40100.0
    H+HO2=>H2O+O          0.14125E+14     0.00     2080.0
    H2O+O=>H+HO2        0.54954E+13     0.00    57630.0
    H+HO2=>H2+O2         0.66069E+14     0.00     2130.0
    H2+O2=>H+HO2        0.14454E+15     0.00    56640.0
    O+HO2=>OH+O2         0.17378E+14     0.00     -400.0
    OH+O2=>O+HO2        0.22387E+14     0.00    52660.0
    OH+HO2=>H2O+O2         0.30199E+14     0.00        0.0
    H2O+O2=>OH+HO2        0.39811E+15     0.00    73000.0
    OH+OH+M=>H2O2+M     0.50119E+25    -3.00        0.0
            'H2O/18.6/ H2/2.86/ O2/1.14/ N2/1.14/'
    H2O2+M=>OH+OH+M     0.11220E+34    -4.90    53250.0
            'H2O/18.6/ H2/2.86/ O2/1.14/ N2/1.14/'
    HO2+H2=>H2O+OH         0.60256E+12     0.00    18680.0
    H2O+OH=>HO2+H2         0.27542E+12     0.00    73740.0
    HO2+H2O=>H2O2+OH         0.25119E+14     0.00    32290.0
    H2O2+OH=>HO2+H2O        0.11482E+14     0.00     1760.0
    H+H2O2=>H2O+OH         0.23988E+14     0.00     3970.0
    H2O+OH=>H+H2O2       0.11482E+15     0.00    79190.0
    OH+M=>O+H+M     0.23988E+16     0.00    99360.0
            'H2O/18.6/ H2/2.86/ O2/1.14/ N2/1.14/'
    O+H+M=>OH+M     0.46774E+19    -1.00        0.0
            'H2O/18.6/ H2/2.86/ O2/1.14/ N2/1.14/'
    O+O+M=>O2+M     0.19055E+14     0.00    -1790.0
            'H2O/18.6/ H2/2.86/ O2/1.14/ N2/1.14/'
    O2+M=>O+O+M     0.18197E+19    -1.00   118100.0
            'H2O/18.6/ H2/2.86/ O2/1.14/ N2/1.14/'
    O+H2O=>OH+OH         0.15136E+11     1.10    17260.0
    OH+OH=>O+H2O        0.15136E+10     1.10        0.0
END